@<TRIPOS>MOLECULE
HUV
   49    51     1     0     0
SMALL
bcc


@<TRIPOS>ATOM
      1 O4          -1.3180   -14.1700   118.0970 o        603 HUV      -0.467000
      2 C10          2.7140   -13.0760   115.3580 ca       603 HUV      -0.252200
      3 C11          2.1870   -11.8350   115.7210 ca       603 HUV       0.068000
      4 C12          0.9880   -11.8580   116.4220 ca       603 HUV       0.219000
      5 C13          3.9030   -14.7730   114.5830 cc       603 HUV      -0.067100
      6 C14          2.8350   -15.3620   115.1790 cd       603 HUV       0.226800
      7 C15         -2.5400   -11.6370   116.3970 c3       603 HUV       0.276700
      8 C2'          4.8320   -13.1890   112.7190 c3       603 HUV      -0.103400
      9 C3'          5.3590   -12.1720   111.7380 c3       603 HUV       0.192100
     10 C4'          6.5930   -11.8990   112.5590 c3       603 HUV       0.137100
     11 C5           4.7880   -12.4350   114.1800 c3       603 HUV       0.154800
     12 C5'          7.2030   -10.6040   112.1290 c3       603 HUV       0.296400
     13 C6          -0.9890   -13.1470   117.5160 c        603 HUV       0.699700
     14 C7           0.3120   -13.0510   116.7630 ca       603 HUV      -0.217600
     15 C8           0.8660   -14.2720   116.3900 ca       603 HUV       0.371000
     16 C9           2.0580   -14.2980   115.6820 ca       603 HUV      -0.221800
     17 N1           3.8490   -13.4000   114.6710 na       603 HUV       0.552600
     18 O1A          7.5970    -8.1560   110.1620 o        603 HUV      -0.051500
     19 O1B          4.8820   -11.1200   108.5000 o        603 HUV      -0.047000
     20 O1G          6.8480    -7.3090   107.4620 o        603 HUV      -0.180500
     21 O2A          6.0620    -7.0760   111.8770 o        603 HUV      -0.051500
     22 O2B          7.0130    -9.8780   108.3210 o        603 HUV      -0.047000
     23 O2G          5.1480    -7.6860   105.7440 o        603 HUV      -0.180500
     24 O3'          5.6700   -12.6270   110.3910 oh       603 HUV      -0.527800
     25 O3A          5.1740    -8.8990   110.0350 os       603 HUV      -0.597800
     26 O3B          4.9590    -8.8470   107.6360 os       603 HUV      -0.521800
     27 O3G          4.5440    -6.4120   108.0260 o        603 HUV      -0.180500
     28 O4'          6.2170   -11.9690   114.0000 os       603 HUV      -0.411600
     29 O5'          6.3840    -9.4440   112.2080 os       603 HUV      -0.449200
     30 O8          -1.8350   -12.1000   117.5450 os       603 HUV      -0.415900
     31 PA           6.3630    -8.3200   111.0100 p5       603 HUV       1.353800
     32 PB           5.5780    -9.7550   108.7280 p5       603 HUV       1.429800
     33 PG           5.3950    -7.4360   107.2080 p5       603 HUV       1.168900
     34 H            2.6620   -10.9500   115.4820 ha       603 HUV       0.161000
     35 H1           0.5700   -10.9590   116.7080 ha       603 HUV       0.182000
     36 H2           4.6650   -15.2920   114.1190 h4       603 HUV       0.209000
     37 H3           2.6350   -16.3720   115.2490 ha       603 HUV       0.197000
     38 H4          -3.1480   -10.7980   116.6660 h1       603 HUV       0.031700
     39 H5          -3.1620   -12.4220   116.0200 h1       603 HUV       0.031700
     40 H6          -1.8400   -11.3430   115.6430 h1       603 HUV       0.031700
     41 H7           5.4820   -14.0380   112.7590 hc       603 HUV       0.069700
     42 H8           3.8630   -13.5420   112.4330 hc       603 HUV       0.069700
     43 H9           4.6890   -11.3810   111.4730 h1       603 HUV       0.067700
     44 H10          7.3560   -12.6330   112.4050 h1       603 HUV       0.063700
     45 H11          4.4820   -11.6370   114.8240 h2       603 HUV       0.084700
     46 H12          7.5080   -10.7140   111.1090 h1       603 HUV       0.026200
     47 H13          7.9980   -10.4290   112.8230 h1       603 HUV       0.026200
     48 H14          0.3920   -15.1540   116.6390 ha       603 HUV       0.182000
     49 H15          6.2910   -13.3710   110.4360 ho       603 HUV       0.411000
@<TRIPOS>BOND
     1     1    13 2   
     2     2     3 ar  
     3     2    16 ar  
     4     2    17 1   
     5     3     4 ar  
     6     3    34 1   
     7     4    14 ar  
     8     4    35 1   
     9     5     6 2   
    10     5    17 1   
    11     5    36 1   
    12     6    16 1   
    13     6    37 1   
    14     7    30 1   
    15     7    38 1   
    16     7    39 1   
    17     7    40 1   
    18     8     9 1   
    19     8    11 1   
    20     8    41 1   
    21     8    42 1   
    22     9    10 1   
    23     9    24 1   
    24     9    43 1   
    25    10    12 1   
    26    10    28 1   
    27    10    44 1   
    28    11    17 1   
    29    11    28 1   
    30    11    45 1   
    31    12    29 1   
    32    12    46 1   
    33    12    47 1   
    34    13    14 1   
    35    13    30 1   
    36    14    15 ar  
    37    15    16 ar  
    38    15    48 1   
    39    18    31 1   
    40    19    32 1   
    41    20    33 1   
    42    21    31 1   
    43    22    32 1   
    44    23    33 1   
    45    24    49 1   
    46    25    31 1   
    47    25    32 1   
    48    26    32 1   
    49    26    33 1   
    50    27    33 1   
    51    29    31 1   
@<TRIPOS>SUBSTRUCTURE
     1 HUV         1 TEMP              0 ****  ****    0 ROOT
