@<TRIPOS>MOLECULE
AMI
   45    47     1     0     0
SMALL
bcc


@<TRIPOS>ATOM
      1 H            1.8430     2.6510     3.5160 hx       493 AMI       0.102200
      2 C            2.2230     3.3860     2.8060 c3       493 AMI       0.084600
      3 N            2.1530     2.8450     1.3460 n4       493 AMI      -0.686400
      4 C1           2.7950     1.4680     1.3560 c3       493 AMI       0.111800
      5 C2           2.5600     0.7010     0.0720 c3       493 AMI      -0.069200
      6 C3           1.6000    -0.4770     0.2420 c2       493 AMI      -0.225200
      7 C4           0.3050    -0.6860    -0.2010 ce       493 AMI       0.042600
      8 C5          -0.3050    -1.9670     0.0580 ca       493 AMI      -0.078800
      9 C6           0.3080    -3.1970    -0.1020 ca       493 AMI      -0.101000
     10 C7          -0.3150    -4.4040     0.2420 ca       493 AMI      -0.117000
     11 C8          -1.5670    -4.3650     0.8500 ca       493 AMI      -0.107000
     12 C9          -2.0690    -3.1680     1.3010 ca       493 AMI      -0.115000
     13 C10         -1.5200    -1.9690     0.8180 ca       493 AMI      -0.078300
     14 C11         -2.0960    -0.6650     1.3220 c3       493 AMI      -0.022100
     15 H1          -3.0170    -0.9730     1.8210 hc       493 AMI       0.036700
     16 H2          -1.4060    -0.2380     2.0520 hc       493 AMI       0.036700
     17 C12         -2.6170     0.3810     0.3350 c3       493 AMI      -0.049100
     18 H3          -3.5080    -0.0540    -0.1230 hc       493 AMI       0.065700
     19 H4          -2.9150     1.2930     0.8560 hc       493 AMI       0.065700
     20 C13         -1.7110     0.6180    -0.8540 ca       493 AMI      -0.078300
     21 C14         -0.3800     0.1700    -1.1250 ca       493 AMI      -0.104800
     22 C15          0.3520     0.6310    -2.2380 ca       493 AMI      -0.121000
     23 C16         -0.2210     1.5090    -3.1000 ca       493 AMI      -0.129000
     24 C17         -1.5630     1.9240    -2.8460 ca       493 AMI      -0.107000
     25 C18         -2.2940     1.5430    -1.7050 ca       493 AMI      -0.143000
     26 H5          -3.2810     1.9570    -1.5190 ha       493 AMI       0.147000
     27 H6          -1.9730     2.7560    -3.4120 ha       493 AMI       0.153000
     28 H7           0.3030     1.9190    -3.9600 ha       493 AMI       0.153000
     29 H8           1.3580     0.3200    -2.5090 ha       493 AMI       0.146000
     30 H9          -2.9930    -3.1800     1.8740 ha       493 AMI       0.143000
     31 H10         -2.1510    -5.2510     1.0840 ha       493 AMI       0.149000
     32 H11          0.1450    -5.3760     0.0820 ha       493 AMI       0.149000
     33 H12          1.3130    -3.1800    -0.5160 ha       493 AMI       0.142000
     34 H13          2.1500    -1.3070     0.6760 ha       493 AMI       0.154000
     35 H14          3.5180     0.3000    -0.2650 hc       493 AMI       0.087700
     36 H15          2.3520     1.4510    -0.6950 hc       493 AMI       0.087700
     37 H16          2.3710     0.9190     2.1990 hx       493 AMI       0.101700
     38 H17          3.8700     1.5960     1.4870 hx       493 AMI       0.101700
     39 C19          2.8980     3.7360     0.3600 c3       493 AMI       0.084600
     40 H18          3.9610     3.6880     0.6040 hx       493 AMI       0.102200
     41 H19          2.5650     4.7660     0.4920 hx       493 AMI       0.102200
     42 H20          2.7250     3.2900    -0.6200 hx       493 AMI       0.102200
     43 H21          1.1650     2.7360     1.0660 hn       493 AMI       0.474800
     44 H22          1.5430     4.2390     2.8300 hx       493 AMI       0.102200
     45 H23          3.2530     3.7020     2.9770 hx       493 AMI       0.102200
@<TRIPOS>BOND
     1     1     2 1   
     2     2     3 1   
     3     2    44 1   
     4     2    45 1   
     5     3     4 1   
     6     3    39 1   
     7     3    43 1   
     8     4     5 1   
     9     4    37 1   
    10     4    38 1   
    11     5     6 1   
    12     5    35 1   
    13     5    36 1   
    14     6     7 2   
    15     6    34 1   
    16     7     8 1   
    17     7    21 1   
    18     8     9 ar  
    19     8    13 ar  
    20     9    10 ar  
    21     9    33 1   
    22    10    11 ar  
    23    10    32 1   
    24    11    12 ar  
    25    11    31 1   
    26    12    13 ar  
    27    12    30 1   
    28    13    14 1   
    29    14    15 1   
    30    14    16 1   
    31    14    17 1   
    32    17    18 1   
    33    17    19 1   
    34    17    20 1   
    35    20    21 ar  
    36    20    25 ar  
    37    21    22 ar  
    38    22    23 ar  
    39    22    29 1   
    40    23    24 ar  
    41    23    28 1   
    42    24    25 ar  
    43    24    27 1   
    44    25    26 1   
    45    39    40 1   
    46    39    41 1   
    47    39    42 1   
@<TRIPOS>SUBSTRUCTURE
     1 AMI         1 TEMP              0 ****  ****    0 ROOT
