@<TRIPOS>MOLECULE
RAL
   61    65     1     0     0
SMALL
bcc


@<TRIPOS>ATOM
      1 C1          48.9420    39.8510    35.1550 ca       241 RAL      -0.050000
      2 C2          47.6370    40.3500    35.0170 ca       241 RAL      -0.205000
      3 C3          46.6530    40.0510    36.0030 ca       241 RAL       0.133100
      4 O3          45.4090    40.6350    35.8260 oh       241 RAL      -0.496100
      5 C4          46.8450    39.1200    36.9740 ca       241 RAL      -0.132000
      6 C5          48.0970    38.5710    37.1600 ca       241 RAL      -0.048100
      7 S6          48.5520    37.3170    38.3000 ss       241 RAL       0.039500
      8 C7          50.1160    37.2980    37.5860 cc       241 RAL       0.011400
      9 C8          51.1050    36.3710    38.1440 ca       241 RAL      -0.076800
     10 C9          50.6860    35.0420    38.3470 ca       241 RAL      -0.074000
     11 C10         51.6250    34.1370    38.9480 ca       241 RAL      -0.184000
     12 C11         52.9540    34.5140    39.1550 ca       241 RAL       0.135100
     13 O11         53.8020    33.5760    39.6270 oh       241 RAL      -0.494100
     14 C12         53.3740    35.7720    38.8060 ca       241 RAL      -0.184000
     15 C13         52.4070    36.7160    38.3490 ca       241 RAL      -0.074000
     16 C14         49.1090    38.9390    36.2780 ca       241 RAL      -0.093800
     17 C15         50.3170    38.2480    36.5920 cd       241 RAL      -0.143400
     18 C16         51.5830    38.5380    35.8660 c        241 RAL       0.612900
     19 O16         52.1740    37.7490    35.1460 o        241 RAL      -0.518100
     20 C17         52.0840    39.9230    36.0480 ca       241 RAL      -0.218600
     21 C18         53.2170    40.3120    35.3720 ca       241 RAL      -0.045500
     22 C19         53.7870    41.5410    35.5780 ca       241 RAL      -0.201500
     23 C20         53.1860    42.4690    36.4440 ca       241 RAL       0.159100
     24 C21         52.0330    42.0690    37.1770 ca       241 RAL      -0.201500
     25 C22         51.4590    40.8370    36.8930 ca       241 RAL      -0.045500
     26 O23         53.8430    43.6600    36.7310 os       241 RAL      -0.322900
     27 C24         54.5660    44.3940    35.7720 c3       241 RAL       0.085400
     28 C25         54.8110    45.7810    36.1780 c3       241 RAL       0.173800
     29 N26         55.8230    46.5240    35.4030 n3       241 RAL      -0.734600
     30 C27         55.4240    46.9750    34.0720 c3       241 RAL       0.173800
     31 C28         56.4500    47.8610    33.3450 c3       241 RAL      -0.077400
     32 C29         57.7740    47.1100    33.1830 c3       241 RAL      -0.078400
     33 C30         58.1970    46.6440    34.5860 c3       241 RAL      -0.077400
     34 C31         57.1590    45.9830    35.5050 c3       241 RAL       0.173800
     35 H1          49.7760    40.0220    34.4800 ha       241 RAL       0.145000
     36 H2          47.4080    40.9840    34.1640 ha       241 RAL       0.137000
     37 H3          45.2660    41.0920    34.9780 ho       241 RAL       0.421000
     38 H4          46.0550    38.9380    37.6980 ha       241 RAL       0.158000
     39 H5          49.6830    34.7160    38.0850 ha       241 RAL       0.144000
     40 H6          51.2390    33.1520    39.1980 ha       241 RAL       0.145500
     41 H7          54.6870    33.9430    39.4540 ho       241 RAL       0.421000
     42 H8          54.3770    36.1740    38.9260 ha       241 RAL       0.145500
     43 H9          52.7360    37.7360    38.1700 ha       241 RAL       0.144000
     44 H10         53.7290    39.5600    34.7770 ha       241 RAL       0.154000
     45 H11         54.5970    41.8950    34.9460 ha       241 RAL       0.149000
     46 H12         51.5720    42.7630    37.8760 ha       241 RAL       0.149000
     47 H13         50.5980    40.5460    37.4880 ha       241 RAL       0.154000
     48 H14         55.5560    43.9410    35.6790 h1       241 RAL       0.043700
     49 H15         54.0040    44.4710    34.8380 h1       241 RAL       0.043700
     50 H16         53.8350    46.2730    36.1400 h1       241 RAL       0.067700
     51 H17         54.9480    45.7740    37.2620 h1       241 RAL       0.067700
     52 H18         55.1200    46.2150    33.3480 h1       241 RAL       0.029200
     53 H19         54.5220    47.5540    34.2850 h1       241 RAL       0.029200
     54 H20         55.9540    48.1550    32.4180 hc       241 RAL       0.048700
     55 H21         56.6550    48.7430    33.9560 hc       241 RAL       0.048700
     56 H22         57.7590    46.2210    32.5490 hc       241 RAL       0.040700
     57 H23         58.4960    47.7740    32.7010 hc       241 RAL       0.040700
     58 H24         59.0840    46.0130    34.4970 hc       241 RAL       0.048700
     59 H25         58.4520    47.5370    35.1600 hc       241 RAL       0.048700
     60 H26         57.5420    46.0590    36.5260 h1       241 RAL       0.029200
     61 H27         57.1300    44.9370    35.1880 h1       241 RAL       0.029200
@<TRIPOS>BOND
     1     1     2 ar  
     2     1    16 ar  
     3     1    35 1   
     4     2     3 ar  
     5     2    36 1   
     6     3     4 1   
     7     3     5 ar  
     8     4    37 1   
     9     5     6 ar  
    10     5    38 1   
    11     6     7 1   
    12     6    16 ar  
    13     7     8 1   
    14     8     9 1   
    15     8    17 2   
    16     9    10 ar  
    17     9    15 ar  
    18    10    11 ar  
    19    10    39 1   
    20    11    12 ar  
    21    11    40 1   
    22    12    13 1   
    23    12    14 ar  
    24    13    41 1   
    25    14    15 ar  
    26    14    42 1   
    27    15    43 1   
    28    16    17 1   
    29    17    18 1   
    30    18    19 2   
    31    18    20 1   
    32    20    21 ar  
    33    20    25 ar  
    34    21    22 ar  
    35    21    44 1   
    36    22    23 ar  
    37    22    45 1   
    38    23    24 ar  
    39    23    26 1   
    40    24    25 ar  
    41    24    46 1   
    42    25    47 1   
    43    26    27 1   
    44    27    28 1   
    45    27    48 1   
    46    27    49 1   
    47    28    29 1   
    48    28    50 1   
    49    28    51 1   
    50    29    30 1   
    51    29    34 1   
    52    30    31 1   
    53    30    52 1   
    54    30    53 1   
    55    31    32 1   
    56    31    54 1   
    57    31    55 1   
    58    32    33 1   
    59    32    56 1   
    60    32    57 1   
    61    33    34 1   
    62    33    58 1   
    63    33    59 1   
    64    34    60 1   
    65    34    61 1   
@<TRIPOS>SUBSTRUCTURE
     1 RAL         1 TEMP              0 ****  ****    0 ROOT
